* # FILE NAME: /NFS/STAK/STUDENTS/G/GOYNESE/CADENCE/SIMULATION/                 
* TRISTATEBUFFER/HSPICES/SCHEMATIC/NETLIST/TRISTATEBUFFER.C.RAW
* NETLIST OUTPUT FOR HSPICES.
* GENERATED ON MAR 15 17:19:32 2014
   
* GLOBAL NET DEFINITIONS
.GLOBAL VDD! 
* FILE NAME: ECE471_TRISTATEBUFFER_SCHEMATIC.S.
* SUBCIRCUIT FOR CELL: TRISTATEBUFFER.
* GENERATED FOR: HSPICES.
* GENERATED ON MAR 15 17:19:32 2014.
   
XI4 EN ENBAR INV_1 
MP1 OUT ENBAR NET9 VDD!  TSMC25DP  L=240E-9 W=1.92E-6 AD=1.152E-12 
+AS=1.152E-12 PD=5.04E-6 PS=5.04E-6 M=1 
MP0 NET26 IN VDD! VDD!  TSMC25DP  L=240E-9 W=960E-9 AD=576E-15 AS=576E-15 
+PD=3.12E-6 PS=3.12E-6 M=1 
MP2 NET9 NET26 VDD! VDD!  TSMC25DP  L=240E-9 W=1.92E-6 AD=1.152E-12 
+AS=1.152E-12 PD=5.04E-6 PS=5.04E-6 M=1 
MN2 OUT EN NET22 0  TSMC25DN  L=240E-9 W=960E-9 AD=576E-15 AS=576E-15 
+PD=3.12E-6 PS=3.12E-6 M=1 
MN1 NET22 NET26 0 0  TSMC25DN  L=240E-9 W=960E-9 AD=576E-15 AS=576E-15 
+PD=3.12E-6 PS=3.12E-6 M=1 
MN0 NET26 IN 0 0  TSMC25DN  L=240E-9 W=480E-9 AD=288E-15 AS=288E-15 PD=2.16E-6 
+PS=2.16E-6 M=1 
   
* FILE NAME: NCSU_DIGITAL_PARTS_INV_CMOS_SCH.S.
* SUBCIRCUIT FOR CELL: INV.
* GENERATED FOR: HSPICES.
* GENERATED ON MAR 15 17:19:32 2014.
   
* TERMINAL MAPPING: A = A
*                   Y = Y
.SUBCKT INV_1 A Y 
M0 Y A 0 0  TSMC25DN  L=(240E-9) W=(360E-9) AD=+2.16000000E-13 
+AS=+2.16000000E-13 PD=+1.92000000E-06 PS=+1.92000000E-06 OFF 
M1 Y A VDD! VDD!  TSMC25DP  L=(240E-9) W=(360E-9) AD=+2.16000000E-13 
+AS=+2.16000000E-13 PD=+1.92000000E-06 PS=+1.92000000E-06 OFF 
   
.lib "/nfs/guille/u1/c/cdsmgr/cdsmgr/pdk/CDK1.4/local/models/hspice/public/publicModel/tsmc25dP" PMOS 
.lib "/nfs/guille/u1/c/cdsmgr/cdsmgr/pdk/CDK1.4/local/models/hspice/public/publicModel/tsmc25dN" NMOS 
   
   
* END OF SUBCIRCUIT DEFINITION.
.ENDS INV_1 
   
   
   
   
.lib "/nfs/guille/u1/c/cdsmgr/cdsmgr/pdk/CDK1.4/local/models/hspice/public/publicModel/tsmc25dN" NMOS 
.lib "/nfs/guille/u1/c/cdsmgr/cdsmgr/pdk/CDK1.4/local/models/hspice/public/publicModel/tsmc25dP" PMOS 
   
* INCLUDE FILES
   
   
   
   
   
   
* END OF NETLIST
.TEMP    25.0000    
.OP
.save
.OPTION  INGOLD=2 ARTIST=2 PSF=2
+        PROBE=0
.END
